  Page 1                                    Tue Jan  6 17:45:54 2026

  ******************************************************************
  *                           E P A N E T                          *
  *                   Hydraulic and Water Quality                  *
  *                   Analysis for Pipe Networks                   *
  *                         Version 2.2                            *
  ******************************************************************
  
   
      Input Data File ................... temp_266550b7.inp
      Number of Junctions................ 2348
      Number of Reservoirs............... 1
      Number of Tanks ................... 0
      Number of Pipes ................... 2380
      Number of Pumps ................... 5
      Number of Valves .................. 3
      Headloss Formula .................. Hazen-Williams
      Nodal Demand Model ................ DDA
      Hydraulic Timestep ................ 1.00 hrs
      Hydraulic Accuracy ................ 0.001000
      Status Check Frequency ............ 2
      Maximum Trials Checked ............ 10
      Damping Limit Threshold ........... 0.000000
      Maximum Trials .................... 200
      Quality Analysis .................. None
      Specific Gravity .................. 1.00
      Relative Kinematic Viscosity ...... 1.00
      Relative Chemical Diffusivity ..... 1.00
      Demand Multiplier ................. 1.00
      Total Duration .................... 24.00 hrs
      Reporting Criteria:
         No Nodes
         No Links
   
  Analysis begun Tue Jan  6 17:45:54 2026

  Analysis ended Tue Jan  6 17:45:54 2026
